@<TRIPOS>MOLECULE
*****
 65 68 0 0 0
SMALL
GASTEIGER

@<TRIPOS>ATOM
      1 C          21.8154   17.6418   -0.7011 C.3     1  UNL1        0.1284
      2 C          23.5265   19.0974   -2.0062 C.2     1  UNL1        0.2460
      3 O          23.1772   18.3729   -3.2723 O.2     1  UNL1       -0.2701
      4 N          22.8457   18.7319   -0.7206 N.am    1  UNL1       -0.2979
      5 H          23.0749   19.2075    0.1104 H       1  UNL1        0.1498
      6 C          26.6386   21.2966   -3.1148 C.ar    1  UNL1        0.0688
      7 C          26.6172   22.3677   -2.0649 C.ar    1  UNL1        0.0206
      8 C          25.5655   22.3487   -0.9954 C.ar    1  UNL1        0.0548
      9 C          24.5353   21.2587   -0.9759 C.ar    1  UNL1        0.0091
     10 C          24.5568   20.1876   -2.0257 C.ar    1  UNL1        0.0548
     11 C          25.6084   20.2066   -3.0952 C.ar    1  UNL1        0.0206
     12 C          25.5442   23.4199    0.0545 C.2     1  UNL1        0.2461
     13 O          24.4041   23.4948    1.0264 O.2     1  UNL1       -0.2701
     14 N          26.6629   24.4160    0.1325 N.am    1  UNL1       -0.2987
     15 H          27.4111   24.3668   -0.5054 H       1  UNL1        0.1500
     16 C          26.6415   25.4871    1.1823 C.3     1  UNL1        0.0944
     17 C          26.3793   25.1281    2.6149 C.3     1  UNL1        0.0262
     18 C          26.8824   26.9174    0.7996 C.ar    1  UNL1       -0.0045
     19 C          27.0473   27.9611    1.8642 C.ar    1  UNL1       -0.0027
     20 C          27.2881   29.3913    1.4815 C.ar    1  UNL1       -0.0003
     21 C          27.3641   29.7778    0.0341 C.ar    1  UNL1       -0.0000
     22 C          27.1992   28.7341   -1.0305 C.ar    1  UNL1       -0.0003
     23 C          26.9584   27.3039   -0.6478 C.ar    1  UNL1       -0.0027
     24 N          27.6902   21.3156   -4.1842 N.pl3   1  UNL1       -0.1925
     25 C          28.6081   22.4950   -4.3127 C.3     1  UNL1        0.1388
     26 S          27.8240   20.1552   -5.1252 S.O2    1  UNL1        0.0588
     27 O          28.6583   19.4295   -4.1117 O.2     1  UNL1       -0.1542
     28 O          26.9896   20.8809   -6.1387 O.2     1  UNL1       -0.1542
     29 C          27.9578   18.9947   -6.0662 C.3     1  UNL1        0.1999
     30 C          20.3749   17.9757   -0.4498 C.3     1  UNL1        0.1313
     31 O          19.4035   18.0140   -1.5922 O.3     1  UNL1       -0.3827
     32 H          19.8664   17.8006   -2.4175 H       1  UNL1        0.2104
     33 C          19.9056   18.2714    0.9439 C.3     1  UNL1        0.0401
     34 C          20.5054   19.4124    1.7110 C.3     1  UNL1        0.0790
     35 C          21.2685   19.1475    2.9749 C.3     1  UNL1        0.0096
     36 C          20.3421   20.8183    1.2142 C.2     1  UNL1        0.2224
     37 O          21.0246   21.2512   -0.0495 O.2     1  UNL1       -0.2751
     38 N          19.4964   21.7912    1.9811 N.am    1  UNL1       -0.2984
     39 H          19.0486   21.5071    2.8105 H       1  UNL1        0.1498
     40 C          19.3332   23.1972    1.4842 C.3     1  UNL1        0.1485
     41 C          20.0861   24.3166    2.1400 C.2     1  UNL1        0.2406
     42 O          19.3411   25.3974    2.8658 O.2     1  UNL1       -0.2733
     43 N          21.5840   24.3551    2.0700 N.am    1  UNL1       -0.2991
     44 H          22.0729   23.6457    1.5936 H       1  UNL1        0.1498
     45 C          22.3368   25.4745    2.7258 C.3     1  UNL1        0.1164
     46 C          22.7915   26.6501    1.9126 C.ar    1  UNL1       -0.0026
     47 C          23.0544   27.9673    2.5802 C.ar    1  UNL1       -0.0026
     48 C          23.5092   29.1428    1.7669 C.ar    1  UNL1       -0.0003
     49 C          23.7010   29.0011    0.2860 C.ar    1  UNL1       -0.0000
     50 C          23.4381   27.6839   -0.3816 C.ar    1  UNL1       -0.0003
     51 C          22.9834   26.5084    0.4316 C.ar    1  UNL1       -0.0026
     52 C          18.4170   23.4836    0.3315 C.3     1  UNL1        0.0269
     53 C          17.1441   22.7059    0.1740 C.3     1  UNL1        0.0022
     54 C          18.7738   24.5478   -0.6636 C.3     1  UNL1        0.0022
     55 C          22.2258   16.2178   -0.9329 C.3     1  UNL1        0.1645
     56 O          23.0365   15.4933    0.1004 O.3     1  UNL1       -0.3472
     57 C          22.4523   15.2175    1.4542 C.3     1  UNL1        0.1688
     58 C          22.9224   14.0341    2.2470 C.ar    1  UNL1        0.0117
     59 C          24.3645   13.9224    2.6441 C.ar    1  UNL1        0.0279
     60 C          24.8347   12.7390    3.4369 C.ar    1  UNL1        0.1421
     61 F          26.2768   12.6273    3.8340 F       1  UNL1       -0.2041
     62 C          23.8626   11.6673    3.8327 C.ar    1  UNL1        0.0592
     63 C          22.4204   11.7791    3.4356 C.ar    1  UNL1        0.1421
     64 F          21.4483   10.7074    3.8314 F       1  UNL1       -0.2041
     65 C          21.9503   12.9624    2.6428 C.ar    1  UNL1        0.0279
@<TRIPOS>BOND
     1    26    27    2
     2    26    28    2
     3    26    24    1
     4    24    25    1
     5    24     6    1
     6     6     7   ar
     7     7     8   ar
     8     8     9   ar
     9     9    10   ar
    10    10    11   ar
    11    10     2    1
    12     2     3    2
    13     2     4   am
    14     4     1    1
    15     1    30    1
    16    30    31    1
    17    30    33    1
    18    33    34    1
    19    34    36    1
    20    36    37    2
    21    36    38   am
    22    40    38    1
    23    40    52    1
    24    52    53    1
    25    52    54    1
    26    40    41    1
    27    41    42    2
    28    41    43   am
    29    43    45    1
    30    45    46    1
    31    46    47   ar
    32    47    48   ar
    33    48    49   ar
    34    49    50   ar
    35    50    51   ar
    36    34    35    1
    37     1    55    1
    38    55    56    1
    39    56    57    1
    40    57    58    1
    41    58    59   ar
    42    59    60   ar
    43    60    61    1
    44    60    62   ar
    45    62    63   ar
    46    63    64    1
    47    63    65   ar
    48     8    12    1
    49    12    13    2
    50    12    14   am
    51    14    16    1
    52    16    17    1
    53    16    18    1
    54    18    19   ar
    55    19    20   ar
    56    20    21   ar
    57    21    22   ar
    58    22    23   ar
    59    26    29    1
    60    11     6   ar
    61    51    46   ar
    62    65    58   ar
    63    23    18   ar
    64     4     5    1
    65    31    32    1
    66    38    39    1
    67    43    44    1
    68    14    15    1
@<TRIPOS>MOLECULE
*****
 65 68 0 0 0
SMALL
GASTEIGER

@<TRIPOS>ATOM
      1 C          21.6463   25.3575    1.7148 C.3     1  UNL1        0.1284
      2 C          22.4394   27.8294    1.6094 C.2     1  UNL1        0.2460
      3 O          22.5725   27.8503    3.1034 O.2     1  UNL1       -0.2701
      4 N          21.9763   26.5830    0.9151 N.am    1  UNL1       -0.2979
      5 H          21.8889   26.5693   -0.0654 H       1  UNL1        0.1498
      6 C          22.5672   31.6175    0.4331 C.ar    1  UNL1        0.0688
      7 C          23.4292   31.5058   -0.7893 C.ar    1  UNL1        0.0206
      8 C          23.9613   30.1686   -1.2122 C.ar    1  UNL1        0.0548
      9 C          23.6314   28.9431   -0.4127 C.ar    1  UNL1        0.0091
     10 C          22.7694   29.0549    0.8098 C.ar    1  UNL1        0.0548
     11 C          22.2373   30.3921    1.2327 C.ar    1  UNL1        0.0206
     12 C          24.8234   30.0569   -2.4347 C.2     1  UNL1        0.2461
     13 O          24.9220   28.7510   -3.1661 O.2     1  UNL1       -0.2701
     14 N          25.5867   31.2511   -2.9258 N.am    1  UNL1       -0.2987
     15 H          25.5219   32.1082   -2.4457 H       1  UNL1        0.1500
     16 C          26.4487   31.1395   -4.1482 C.3     1  UNL1        0.0944
     17 C          27.9112   30.8364   -4.0096 C.3     1  UNL1        0.0262
     18 C          25.8482   31.3309   -5.5095 C.ar    1  UNL1       -0.0045
     19 C          24.4013   31.7020   -5.6455 C.ar    1  UNL1       -0.0027
     20 C          23.8009   31.8934   -7.0066 C.ar    1  UNL1       -0.0003
     21 C          24.6474   31.7137   -8.2318 C.ar    1  UNL1       -0.0000
     22 C          26.0944   31.3426   -8.0958 C.ar    1  UNL1       -0.0003
     23 C          26.6948   31.1512   -6.7346 C.ar    1  UNL1       -0.0027
     24 N          22.0351   32.9547    0.8560 N.pl3   1  UNL1       -0.1925
     25 C          21.1737   33.0665    2.0788 C.3     1  UNL1        0.1388
     26 S          22.3645   34.1801    0.0560 S.O2    1  UNL1        0.0588
     27 O          23.5767   34.4109    0.9089 O.2     1  UNL1       -0.1542
     28 O          21.1524   33.9492   -0.7968 O.2     1  UNL1       -0.1542
     29 C          22.6940   35.4055   -0.7439 C.3     1  UNL1        0.1999
     30 C          20.2159   25.0211    2.0159 C.3     1  UNL1        0.1313
     31 O          19.6929   25.1536    3.4155 O.3     1  UNL1       -0.3827
     32 H          20.4031   25.4655    3.9979 H       1  UNL1        0.2104
     33 C          19.3084   24.5524    0.9174 C.3     1  UNL1        0.0401
     34 C          18.5731   23.2523    1.0555 C.3     1  UNL1        0.0790
     35 C          17.0948   23.2500    1.3095 C.3     1  UNL1        0.0096
     36 C          19.3162   21.9544    0.9396 C.2     1  UNL1        0.2224
     37 O          19.4715   21.2961   -0.3993 O.2     1  UNL1       -0.2751
     38 N          19.9038   21.3148    2.1625 N.am    1  UNL1       -0.2984
     39 H          19.8019   21.7469    3.0412 H       1  UNL1        0.1498
     40 C          20.6469   20.0169    2.0465 C.3     1  UNL1        0.1485
     41 C          22.0941   20.0139    1.6522 C.2     1  UNL1        0.2406
     42 O          23.0783   19.1799    2.4176 O.2     1  UNL1       -0.2733
     43 N          22.5572   20.8449    0.4924 N.am    1  UNL1       -0.2991
     44 H          21.9113   21.3922   -0.0100 H       1  UNL1        0.1498
     45 C          24.0044   20.8418    0.0980 C.3     1  UNL1        0.1164
     46 C          24.4010   20.4552   -1.2959 C.ar    1  UNL1       -0.0026
     47 C          25.4176   21.2697   -2.0396 C.ar    1  UNL1       -0.0026
     48 C          25.8143   20.8831   -3.4337 C.ar    1  UNL1       -0.0003
     49 C          25.1943   19.6819   -4.0839 C.ar    1  UNL1       -0.0000
     50 C          24.1777   18.8674   -3.3402 C.ar    1  UNL1       -0.0003
     51 C          23.7811   19.2540   -1.9463 C.ar    1  UNL1       -0.0026
     52 C          19.9427   18.7221    2.3249 C.3     1  UNL1        0.0269
     53 C          19.9629   17.6229    1.3046 C.3     1  UNL1        0.0022
     54 C          19.2182   18.5265    3.6238 C.3     1  UNL1        0.0022
     55 C          22.7468   24.4684    2.2133 C.3     1  UNL1        0.1645
     56 O          24.0790   25.0550    2.5750 O.3     1  UNL1       -0.3472
     57 C          25.2052   25.0260    1.5845 C.3     1  UNL1        0.1688
     58 C          25.8867   26.3015    1.1861 C.ar    1  UNL1        0.0117
     59 C          26.4446   26.4530   -0.1979 C.ar    1  UNL1        0.0279
     60 C          27.1262   27.7285   -0.5964 C.ar    1  UNL1        0.1421
     61 F          27.6842   27.8801   -1.9804 F       1  UNL1       -0.2041
     62 C          27.2497   28.8525    0.3893 C.ar    1  UNL1        0.0592
     63 C          26.6916   28.7009    1.7734 C.ar    1  UNL1        0.1421
     64 F          26.8151   29.8248    2.7591 F       1  UNL1       -0.2041
     65 C          26.0102   27.4254    2.1718 C.ar    1  UNL1        0.0279
@<TRIPOS>BOND
     1    26    27    2
     2    26    28    2
     3    26    24    1
     4    24    25    1
     5    24     6    1
     6     6     7   ar
     7     7     8   ar
     8     8     9   ar
     9     9    10   ar
    10    10    11   ar
    11    10     2    1
    12     2     3    2
    13     2     4   am
    14     4     1    1
    15     1    30    1
    16    30    31    1
    17    30    33    1
    18    33    34    1
    19    34    36    1
    20    36    37    2
    21    36    38   am
    22    40    38    1
    23    40    52    1
    24    52    53    1
    25    52    54    1
    26    40    41    1
    27    41    42    2
    28    41    43   am
    29    43    45    1
    30    45    46    1
    31    46    47   ar
    32    47    48   ar
    33    48    49   ar
    34    49    50   ar
    35    50    51   ar
    36    34    35    1
    37     1    55    1
    38    55    56    1
    39    56    57    1
    40    57    58    1
    41    58    59   ar
    42    59    60   ar
    43    60    61    1
    44    60    62   ar
    45    62    63   ar
    46    63    64    1
    47    63    65   ar
    48     8    12    1
    49    12    13    2
    50    12    14   am
    51    14    16    1
    52    16    17    1
    53    16    18    1
    54    18    19   ar
    55    19    20   ar
    56    20    21   ar
    57    21    22   ar
    58    22    23   ar
    59    26    29    1
    60    11     6   ar
    61    51    46   ar
    62    65    58   ar
    63    23    18   ar
    64     4     5    1
    65    31    32    1
    66    38    39    1
    67    43    44    1
    68    14    15    1
@<TRIPOS>MOLECULE
*****
 65 68 0 0 0
SMALL
GASTEIGER

@<TRIPOS>ATOM
      1 C          23.4374   26.3768    1.8204 C.3     1  UNL1        0.1284
      2 C          23.6776   27.7456   -0.3748 C.2     1  UNL1        0.2460
      3 O          23.8217   26.4716   -1.1534 O.2     1  UNL1       -0.2701
      4 N          23.4854   27.6982    1.1121 N.am    1  UNL1       -0.2979
      5 H          23.3908   28.5344    1.6231 H       1  UNL1        0.1498
      6 C          23.3963   31.6440   -1.0627 C.ar    1  UNL1        0.0688
      7 C          23.8215   31.7097   -2.4997 C.ar    1  UNL1        0.0206
      8 C          24.1988   30.4540   -3.2283 C.ar    1  UNL1        0.0548
      9 C          24.1508   29.1327   -2.5201 C.ar    1  UNL1        0.0091
     10 C          23.7256   29.0670   -1.0831 C.ar    1  UNL1        0.0548
     11 C          23.3483   30.3227   -0.3545 C.ar    1  UNL1        0.0206
     12 C          24.6240   30.5198   -4.6653 C.2     1  UNL1        0.2461
     13 O          25.3127   29.3470   -5.2981 O.2     1  UNL1       -0.2701
     14 N          24.3605   31.7582   -5.4695 N.am    1  UNL1       -0.2987
     15 H          23.9085   32.5279   -5.0542 H       1  UNL1        0.1500
     16 C          24.7857   31.8240   -6.9065 C.3     1  UNL1        0.0944
     17 C          26.2066   32.1563   -7.2537 C.3     1  UNL1        0.0262
     18 C          23.7900   31.5574   -7.9963 C.ar    1  UNL1       -0.0045
     19 C          23.1754   32.7014   -8.7469 C.ar    1  UNL1       -0.0027
     20 C          22.1797   32.4349   -9.8366 C.ar    1  UNL1       -0.0003
     21 C          21.7986   31.0243  -10.1757 C.ar    1  UNL1       -0.0000
     22 C          22.4132   29.8802   -9.4250 C.ar    1  UNL1       -0.0003
     23 C          23.4089   30.1468   -8.3353 C.ar    1  UNL1       -0.0027
     24 N          23.0190   32.8997   -0.3341 N.pl3   1  UNL1       -0.1925
     25 C          23.7774   34.1692   -0.5853 C.3     1  UNL1        0.1388
     26 S          21.8834   32.8859    0.6458 S.O2    1  UNL1        0.0588
     27 O          22.8545   33.0711    1.7739 O.2     1  UNL1       -0.1542
     28 O          20.9123   32.7006   -0.4823 O.2     1  UNL1       -0.1542
     29 C          20.7478   32.8720    1.6258 C.3     1  UNL1        0.1999
     30 C          22.1180   25.7113    2.0776 C.3     1  UNL1        0.1313
     31 O          21.8757   25.0040    3.3781 O.3     1  UNL1       -0.3827
     32 H          22.6670   25.0711    3.9350 H       1  UNL1        0.2104
     33 C          21.0410   25.7530    1.0345 C.3     1  UNL1        0.0401
     34 C          19.7650   24.9925    1.2431 C.3     1  UNL1        0.0790
     35 C          18.5445   25.7006    1.7521 C.3     1  UNL1        0.0096
     36 C          19.7094   23.5240    0.9428 C.2     1  UNL1        0.2224
     37 O          18.8472   23.0194   -0.1762 O.2     1  UNL1       -0.2751
     38 N          20.5160   22.5600    1.7614 N.am    1  UNL1       -0.2984
     39 H          21.0819   22.8912    2.4958 H       1  UNL1        0.1498
     40 C          20.4604   21.0914    1.4610 C.3     1  UNL1        0.1485
     41 C          21.4061   20.4939    0.4617 C.2     1  UNL1        0.2406
     42 O          20.9038   20.0721   -0.8873 O.2     1  UNL1       -0.2733
     43 N          22.8543   20.3183    0.8113 N.am    1  UNL1       -0.2991
     44 H          23.1840   20.5951    1.6967 H       1  UNL1        0.1498
     45 C          23.8000   19.7208   -0.1880 C.3     1  UNL1        0.1164
     46 C          24.6603   20.6130   -1.0328 C.ar    1  UNL1       -0.0026
     47 C          25.2393   21.8678   -0.4497 C.ar    1  UNL1       -0.0026
     48 C          26.0997   22.7600   -1.2947 C.ar    1  UNL1       -0.0003
     49 C          26.3810   22.3973   -2.7227 C.ar    1  UNL1       -0.0000
     50 C          25.8019   21.1424   -3.3058 C.ar    1  UNL1       -0.0003
     51 C          24.9416   20.2503   -2.4609 C.ar    1  UNL1       -0.0026
     52 C          19.4591   20.2203    2.1600 C.3     1  UNL1        0.0269
     53 C          19.7853   18.7848    2.4478 C.3     1  UNL1        0.0022
     54 C          18.1315   20.7848    2.5711 C.3     1  UNL1        0.0022
     55 C          24.7088   25.7211    2.2715 C.3     1  UNL1        0.1645
     56 O          25.6026   25.0503    1.2710 O.3     1  UNL1       -0.3472
     57 C          26.9537   25.6270    0.9669 C.3     1  UNL1        0.1688
     58 C          27.1154   27.1082    0.7947 C.ar    1  UNL1        0.0117
     59 C          27.2609   27.9916    1.9982 C.ar    1  UNL1        0.0279
     60 C          27.4227   29.4730    1.8261 C.ar    1  UNL1        0.1421
     61 F          27.5682   30.3564    3.0295 F       1  UNL1       -0.2041
     62 C          27.4390   30.0708    0.4504 C.ar    1  UNL1        0.0592
     63 C          27.2936   29.1873   -0.7531 C.ar    1  UNL1        0.1421
     64 F          27.3099   29.7851   -2.1287 F       1  UNL1       -0.2041
     65 C          27.1318   27.7060   -0.5809 C.ar    1  UNL1        0.0279
@<TRIPOS>BOND
     1    26    27    2
     2    26    28    2
     3    26    24    1
     4    24    25    1
     5    24     6    1
     6     6     7   ar
     7     7     8   ar
     8     8     9   ar
     9     9    10   ar
    10    10    11   ar
    11    10     2    1
    12     2     3    2
    13     2     4   am
    14     4     1    1
    15     1    30    1
    16    30    31    1
    17    30    33    1
    18    33    34    1
    19    34    36    1
    20    36    37    2
    21    36    38   am
    22    40    38    1
    23    40    52    1
    24    52    53    1
    25    52    54    1
    26    40    41    1
    27    41    42    2
    28    41    43   am
    29    43    45    1
    30    45    46    1
    31    46    47   ar
    32    47    48   ar
    33    48    49   ar
    34    49    50   ar
    35    50    51   ar
    36    34    35    1
    37     1    55    1
    38    55    56    1
    39    56    57    1
    40    57    58    1
    41    58    59   ar
    42    59    60   ar
    43    60    61    1
    44    60    62   ar
    45    62    63   ar
    46    63    64    1
    47    63    65   ar
    48     8    12    1
    49    12    13    2
    50    12    14   am
    51    14    16    1
    52    16    17    1
    53    16    18    1
    54    18    19   ar
    55    19    20   ar
    56    20    21   ar
    57    21    22   ar
    58    22    23   ar
    59    26    29    1
    60    11     6   ar
    61    51    46   ar
    62    65    58   ar
    63    23    18   ar
    64     4     5    1
    65    31    32    1
    66    38    39    1
    67    43    44    1
    68    14    15    1
@<TRIPOS>MOLECULE
*****
 65 68 0 0 0
SMALL
GASTEIGER

@<TRIPOS>ATOM
      1 C          26.0979   25.6393    0.2440 C.3     1  UNL1        0.1284
      2 C          26.2625   23.2843   -0.8409 C.2     1  UNL1        0.2460
      3 O          27.7211   23.5096   -1.1087 O.2     1  UNL1       -0.2701
      4 N          25.4509   24.3491   -0.1646 N.am    1  UNL1       -0.2979
      5 H          24.4936   24.2012    0.0112 H       1  UNL1        0.1498
      6 C          25.2816   20.0981   -2.9941 C.ar    1  UNL1        0.0688
      7 C          24.3216   19.4139   -2.0667 C.ar    1  UNL1        0.0206
      8 C          24.0086   20.0197   -0.7306 C.ar    1  UNL1        0.0548
      9 C          24.6556   21.3098   -0.3220 C.ar    1  UNL1        0.0091
     10 C          25.6155   21.9941   -1.2495 C.ar    1  UNL1        0.0548
     11 C          25.9285   21.3883   -2.5855 C.ar    1  UNL1        0.0206
     12 C          23.0486   19.3353    0.1968 C.2     1  UNL1        0.2461
     13 O          23.4155   19.1276    1.6363 O.2     1  UNL1       -0.2701
     14 N          21.7218   18.8587   -0.3153 N.am    1  UNL1       -0.2987
     15 H          21.4810   18.9950   -1.2601 H       1  UNL1        0.1500
     16 C          20.7618   18.1743    0.6121 C.3     1  UNL1        0.0944
     17 C          20.7553   16.6778    0.7141 C.3     1  UNL1        0.0262
     18 C          19.8082   18.9865    1.4374 C.ar    1  UNL1       -0.0045
     19 C          19.5447   18.6110    2.8655 C.ar    1  UNL1       -0.0027
     20 C          18.5912   19.4232    3.6908 C.ar    1  UNL1       -0.0003
     21 C          17.9012   20.6108    3.0880 C.ar    1  UNL1       -0.0000
     22 C          18.1647   20.9863    1.6600 C.ar    1  UNL1       -0.0003
     23 C          19.1182   20.1742    0.8346 C.ar    1  UNL1       -0.0027
     24 N          25.5946   19.4923   -4.3302 N.pl3   1  UNL1       -0.1925
     25 C          24.9387   18.2083   -4.7436 C.3     1  UNL1        0.1388
     26 S          26.5634   20.1706   -5.2528 S.O2    1  UNL1        0.0588
     27 O          27.6881   19.3796   -4.6532 O.2     1  UNL1       -0.1542
     28 O          25.4388   20.9615   -5.8523 O.2     1  UNL1       -0.1542
     29 C          27.5324   20.8488   -6.1754 C.3     1  UNL1        0.1999
     30 C          26.2136   25.9931    1.6971 C.3     1  UNL1        0.1313
     31 O          25.3276   25.3228    2.7050 O.3     1  UNL1       -0.3827
     32 H          24.7434   24.6934    2.2541 H       1  UNL1        0.2104
     33 C          27.2152   27.0171    2.1423 C.3     1  UNL1        0.0401
     34 C          26.8009   28.4493    2.3069 C.3     1  UNL1        0.0790
     35 C          27.8388   29.5320    2.3332 C.3     1  UNL1        0.0096
     36 C          25.3488   28.7989    2.4453 C.2     1  UNL1        0.2224
     37 O          24.7331   28.9199    3.8078 O.2     1  UNL1       -0.2751
     38 N          24.5125   29.0275    1.2213 N.am    1  UNL1       -0.2984
     39 H          24.9166   28.9480    0.3271 H       1  UNL1        0.1498
     40 C          23.0603   29.3771    1.3598 C.3     1  UNL1        0.1485
     41 C          22.1180   28.4179    2.0247 C.2     1  UNL1        0.2406
     42 O          20.7318   28.8598    2.3896 O.2     1  UNL1       -0.2733
     43 N          22.5620   27.0169    2.3248 N.am    1  UNL1       -0.2991
     44 H          23.4718   26.7269    2.0853 H       1  UNL1        0.1498
     45 C          21.6198   26.0577    2.9897 C.3     1  UNL1        0.1164
     46 C          20.4434   25.5159    2.2330 C.ar    1  UNL1       -0.0026
     47 C          20.5186   25.3569    0.7433 C.ar    1  UNL1       -0.0026
     48 C          19.3421   24.8151   -0.0134 C.ar    1  UNL1       -0.0003
     49 C          18.0907   24.4324    0.7195 C.ar    1  UNL1       -0.0000
     50 C          18.0155   24.5914    2.2092 C.ar    1  UNL1       -0.0003
     51 C          19.1919   25.1331    2.9659 C.ar    1  UNL1       -0.0026
     52 C          22.5505   30.6859    0.8333 C.3     1  UNL1        0.0269
     53 C          22.4914   31.8844    1.7332 C.3     1  UNL1        0.0022
     54 C          22.0997   30.7960   -0.5932 C.3     1  UNL1        0.0022
     55 C          26.6293   26.5756   -0.8005 C.3     1  UNL1        0.1645
     56 O          26.0414   27.9478   -0.9464 O.3     1  UNL1       -0.3472
     57 C          26.5919   28.8945   -1.9716 C.3     1  UNL1        0.1688
     58 C          25.7401   30.0137   -2.4928 C.ar    1  UNL1        0.0117
     59 C          24.9888   29.8474   -3.7804 C.ar    1  UNL1        0.0279
     60 C          24.1370   30.9666   -4.3017 C.ar    1  UNL1        0.1421
     61 F          23.3857   30.8003   -5.5893 F       1  UNL1       -0.2041
     62 C          24.0365   32.2522   -3.5354 C.ar    1  UNL1        0.0592
     63 C          24.7878   32.4185   -2.2478 C.ar    1  UNL1        0.1421
     64 F          24.6873   33.7041   -1.4815 F       1  UNL1       -0.2041
     65 C          25.6396   31.2993   -1.7265 C.ar    1  UNL1        0.0279
@<TRIPOS>BOND
     1    26    27    2
     2    26    28    2
     3    26    24    1
     4    24    25    1
     5    24     6    1
     6     6     7   ar
     7     7     8   ar
     8     8     9   ar
     9     9    10   ar
    10    10    11   ar
    11    10     2    1
    12     2     3    2
    13     2     4   am
    14     4     1    1
    15     1    30    1
    16    30    31    1
    17    30    33    1
    18    33    34    1
    19    34    36    1
    20    36    37    2
    21    36    38   am
    22    40    38    1
    23    40    52    1
    24    52    53    1
    25    52    54    1
    26    40    41    1
    27    41    42    2
    28    41    43   am
    29    43    45    1
    30    45    46    1
    31    46    47   ar
    32    47    48   ar
    33    48    49   ar
    34    49    50   ar
    35    50    51   ar
    36    34    35    1
    37     1    55    1
    38    55    56    1
    39    56    57    1
    40    57    58    1
    41    58    59   ar
    42    59    60   ar
    43    60    61    1
    44    60    62   ar
    45    62    63   ar
    46    63    64    1
    47    63    65   ar
    48     8    12    1
    49    12    13    2
    50    12    14   am
    51    14    16    1
    52    16    17    1
    53    16    18    1
    54    18    19   ar
    55    19    20   ar
    56    20    21   ar
    57    21    22   ar
    58    22    23   ar
    59    26    29    1
    60    11     6   ar
    61    51    46   ar
    62    65    58   ar
    63    23    18   ar
    64     4     5    1
    65    31    32    1
    66    38    39    1
    67    43    44    1
    68    14    15    1
@<TRIPOS>MOLECULE
*****
 65 68 0 0 0
SMALL
GASTEIGER

@<TRIPOS>ATOM
      1 C          24.6787   25.3790    0.8056 C.3     1  UNL1        0.1284
      2 C          24.2772   27.9387    0.6131 C.2     1  UNL1        0.2460
      3 O          24.5757   28.0954    2.0748 O.2     1  UNL1       -0.2701
      4 N          24.3287   26.5805   -0.0215 N.am    1  UNL1       -0.2979
      5 H          24.1328   26.4777   -0.9808 H       1  UNL1        0.1498
      6 C          22.6417   31.3802   -0.4964 C.ar    1  UNL1        0.0688
      7 C          23.2271   31.5431   -1.8678 C.ar    1  UNL1        0.0206
      8 C          24.1625   30.5046   -2.4122 C.ar    1  UNL1        0.0548
      9 C          24.5126   29.3031   -1.5853 C.ar    1  UNL1        0.0091
     10 C          23.9272   29.1402   -0.2139 C.ar    1  UNL1        0.0548
     11 C          22.9917   30.1787    0.3305 C.ar    1  UNL1        0.0206
     12 C          24.7480   30.6676   -3.7837 C.2     1  UNL1        0.2461
     13 O          24.7332   32.0110   -4.4506 O.2     1  UNL1       -0.2701
     14 N          25.3481   29.4871   -4.4881 N.am    1  UNL1       -0.2987
     15 H          25.3578   28.6053   -4.0503 H       1  UNL1        0.1500
     16 C          25.9335   29.6500   -5.8595 C.3     1  UNL1        0.0944
     17 C          27.3629   30.0758   -6.0190 C.3     1  UNL1        0.0262
     18 C          25.0895   29.3871   -7.0713 C.ar    1  UNL1       -0.0045
     19 C          23.9444   30.2985   -7.3999 C.ar    1  UNL1       -0.0027
     20 C          23.1004   30.0356   -8.6117 C.ar    1  UNL1       -0.0003
     21 C          23.4016   28.8612   -9.4950 C.ar    1  UNL1       -0.0000
     22 C          24.5467   27.9498   -9.1665 C.ar    1  UNL1       -0.0003
     23 C          25.3907   28.2128   -7.9546 C.ar    1  UNL1       -0.0027
     24 N          21.7063   32.4188    0.0480 N.pl3   1  UNL1       -0.1925
     25 C          20.4071   32.0043    0.6727 C.3     1  UNL1        0.1388
     26 S          22.0700   33.8717   -0.0322 S.O2    1  UNL1        0.0588
     27 O          23.1443   33.6594    0.9928 O.2     1  UNL1       -0.1542
     28 O          20.9958   34.0841   -1.0573 O.2     1  UNL1       -0.1542
     29 C          22.4339   35.3248   -0.1124 C.3     1  UNL1        0.1999
     30 C          23.5949   24.5910    1.4797 C.3     1  UNL1        0.1313
     31 O          23.4594   23.1212    1.2125 O.3     1  UNL1       -0.3827
     32 H          24.1455   22.8418    0.5862 H       1  UNL1        0.2104
     33 C          22.6467   25.2727    2.4210 C.3     1  UNL1        0.0401
     34 C          21.2472   25.5846    1.9804 C.3     1  UNL1        0.0790
     35 C          20.6655   26.9432    2.2366 C.3     1  UNL1        0.0096
     36 C          20.4294   24.5378    1.2837 C.2     1  UNL1        0.2224
     37 O          19.6856   24.8806    0.0269 O.2     1  UNL1       -0.2751
     38 N          20.3552   23.1483    1.8437 N.am    1  UNL1       -0.2984
     39 H          20.8433   22.9233    2.6686 H       1  UNL1        0.1498
     40 C          19.5374   22.1015    1.1469 C.3     1  UNL1        0.1485
     41 C          20.1663   21.2339    0.0973 C.2     1  UNL1        0.2406
     42 O          21.6601   21.1417   -0.0030 O.2     1  UNL1       -0.2733
     43 N          19.3015   20.4586   -0.8519 N.am    1  UNL1       -0.2991
     44 H          18.3211   20.5192   -0.7861 H       1  UNL1        0.1498
     45 C          19.9305   19.5911   -1.9015 C.3     1  UNL1        0.1164
     46 C          19.0824   18.9830   -2.9789 C.ar    1  UNL1       -0.0026
     47 C          17.6815   18.5431   -2.6720 C.ar    1  UNL1       -0.0026
     48 C          16.8334   17.9349   -3.7495 C.ar    1  UNL1       -0.0003
     49 C          17.3861   17.7667   -5.1338 C.ar    1  UNL1       -0.0000
     50 C          18.7869   18.2065   -5.4406 C.ar    1  UNL1       -0.0003
     51 C          19.6351   18.8147   -4.3632 C.ar    1  UNL1       -0.0026
     52 C          18.0905   21.9223    1.4998 C.3     1  UNL1        0.0269
     53 C          17.0405   22.7244    0.7899 C.3     1  UNL1        0.0022
     54 C          17.6937   20.9409    2.5627 C.3     1  UNL1        0.0022
     55 C          26.1124   24.9656    0.9585 C.3     1  UNL1        0.1645
     56 O          26.5949   23.6883    0.3374 O.3     1  UNL1       -0.3472
     57 C          26.7094   23.5760   -1.1541 C.3     1  UNL1        0.1688
     58 C          26.1643   22.3697   -1.8594 C.ar    1  UNL1        0.0117
     59 C          25.2958   21.3966   -1.1187 C.ar    1  UNL1        0.0279
     60 C          24.7506   20.1901   -1.8240 C.ar    1  UNL1        0.1421
     61 F          23.8821   19.2170   -1.0833 F       1  UNL1       -0.2041
     62 C          25.0740   19.9569   -3.2701 C.ar    1  UNL1        0.0592
     63 C          25.9425   20.9301   -4.0108 C.ar    1  UNL1        0.1421
     64 F          26.2659   20.6969   -5.4568 F       1  UNL1       -0.2041
     65 C          26.4877   22.1365   -3.3055 C.ar    1  UNL1        0.0279
@<TRIPOS>BOND
     1    26    27    2
     2    26    28    2
     3    26    24    1
     4    24    25    1
     5    24     6    1
     6     6     7   ar
     7     7     8   ar
     8     8     9   ar
     9     9    10   ar
    10    10    11   ar
    11    10     2    1
    12     2     3    2
    13     2     4   am
    14     4     1    1
    15     1    30    1
    16    30    31    1
    17    30    33    1
    18    33    34    1
    19    34    36    1
    20    36    37    2
    21    36    38   am
    22    40    38    1
    23    40    52    1
    24    52    53    1
    25    52    54    1
    26    40    41    1
    27    41    42    2
    28    41    43   am
    29    43    45    1
    30    45    46    1
    31    46    47   ar
    32    47    48   ar
    33    48    49   ar
    34    49    50   ar
    35    50    51   ar
    36    34    35    1
    37     1    55    1
    38    55    56    1
    39    56    57    1
    40    57    58    1
    41    58    59   ar
    42    59    60   ar
    43    60    61    1
    44    60    62   ar
    45    62    63   ar
    46    63    64    1
    47    63    65   ar
    48     8    12    1
    49    12    13    2
    50    12    14   am
    51    14    16    1
    52    16    17    1
    53    16    18    1
    54    18    19   ar
    55    19    20   ar
    56    20    21   ar
    57    21    22   ar
    58    22    23   ar
    59    26    29    1
    60    11     6   ar
    61    51    46   ar
    62    65    58   ar
    63    23    18   ar
    64     4     5    1
    65    31    32    1
    66    38    39    1
    67    43    44    1
    68    14    15    1
@<TRIPOS>MOLECULE
*****
 65 68 0 0 0
SMALL
GASTEIGER

@<TRIPOS>ATOM
      1 C          22.8865   19.2124   -0.3270 C.3     1  UNL1        0.1284
      2 C          20.6136   18.2731   -1.1646 C.2     1  UNL1        0.2460
      3 O          20.1372   19.6690   -1.4375 O.2     1  UNL1       -0.2701
      4 N          21.9882   18.0447   -0.6094 N.am    1  UNL1       -0.2979
      5 H          22.3008   17.1285   -0.4303 H       1  UNL1        0.1498
      6 C          17.7415   16.0532   -2.7687 C.ar    1  UNL1        0.0688
      7 C          17.9186   14.7703   -2.0118 C.ar    1  UNL1        0.0206
      8 C          18.9940   14.6551   -0.9725 C.ar    1  UNL1        0.0548
      9 C          19.8923   15.8226   -0.6901 C.ar    1  UNL1        0.0091
     10 C          19.7152   17.1054   -1.4470 C.ar    1  UNL1        0.0548
     11 C          18.6398   17.2207   -2.4863 C.ar    1  UNL1        0.0206
     12 C          19.1711   13.3721   -0.2156 C.2     1  UNL1        0.2461
     13 O          18.1105   12.9129    0.7405 O.2     1  UNL1       -0.2701
     14 N          20.4088   12.5485   -0.4150 N.am    1  UNL1       -0.2987
     15 H          21.1049   12.8499   -1.0425 H       1  UNL1        0.1500
     16 C          20.5859   11.2656    0.3419 C.3     1  UNL1        0.0944
     17 C          19.7498   10.0692   -0.0039 C.3     1  UNL1        0.0262
     18 C          21.5992   11.1791    1.4446 C.ar    1  UNL1       -0.0045
     19 C          21.6292   12.2251    2.5193 C.ar    1  UNL1       -0.0027
     20 C          22.6424   12.1385    3.6219 C.ar    1  UNL1       -0.0003
     21 C          23.6256   11.0060    3.6499 C.ar    1  UNL1       -0.0000
     22 C          23.5956    9.9600    2.5752 C.ar    1  UNL1       -0.0003
     23 C          22.5823   10.0466    1.4725 C.ar    1  UNL1       -0.0027
     24 N          16.6660   16.1685   -3.8080 N.pl3   1  UNL1       -0.1925
     25 C          16.2641   17.5180   -4.3249 C.3     1  UNL1        0.1388
     26 S          15.9925   14.9342   -4.3305 S.O2    1  UNL1        0.0588
     27 O          14.8076   15.2094   -3.4529 O.2     1  UNL1       -0.1542
     28 O          17.1774   14.6591   -5.2080 O.2     1  UNL1       -0.1542
     29 C          15.3189   13.6999   -4.8529 C.3     1  UNL1        0.1999
     30 C          22.5843   20.1311    0.8196 C.3     1  UNL1        0.1313
     31 O          22.9030   21.5930    0.7133 O.3     1  UNL1       -0.3827
     32 H          23.2966   21.7760   -0.1541 H       1  UNL1        0.2104
     33 C          21.9634   19.5879    2.0723 C.3     1  UNL1        0.0401
     34 C          20.4704   19.5299    2.2053 C.3     1  UNL1        0.0790
     35 C          19.8027   18.2493    2.6101 C.3     1  UNL1        0.0096
     36 C          19.6452   20.7526    1.9334 C.2     1  UNL1        0.2224
     37 O          18.4021   21.0114    2.7321 O.2     1  UNL1       -0.2751
     38 N          20.0629   21.7166    0.8627 N.am    1  UNL1       -0.2984
     39 H          20.8788   21.5468    0.3385 H       1  UNL1        0.1498
     40 C          19.2376   22.9393    0.5908 C.3     1  UNL1        0.1485
     41 C          19.6076   24.2493    1.2210 C.2     1  UNL1        0.2406
     42 O          18.7914   25.4753    0.9370 O.2     1  UNL1       -0.2733
     43 N          20.7940   24.3333    2.1351 N.am    1  UNL1       -0.2991
     44 H          21.3298   23.5286    2.3215 H       1  UNL1        0.1498
     45 C          21.1640   25.6432    2.7652 C.3     1  UNL1        0.1164
     46 C          21.9619   26.6494    1.9901 C.ar    1  UNL1       -0.0026
     47 C          22.9813   26.1892    0.9905 C.ar    1  UNL1       -0.0026
     48 C          23.7792   27.1955    0.2154 C.ar    1  UNL1       -0.0003
     49 C          23.5577   28.6620    0.4398 C.ar    1  UNL1       -0.0000
     50 C          22.5384   29.1222    1.4393 C.ar    1  UNL1       -0.0003
     51 C          21.7405   28.1160    2.2145 C.ar    1  UNL1       -0.0026
     52 C          18.0423   22.8520   -0.3112 C.3     1  UNL1        0.0269
     53 C          16.7046   22.4724    0.2511 C.3     1  UNL1        0.0022
     54 C          18.1848   23.1444   -1.7755 C.3     1  UNL1        0.0022
     55 C          24.0870   19.4612   -1.1911 C.3     1  UNL1        0.1645
     56 O          25.1550   20.4109   -0.7357 O.3     1  UNL1       -0.3472
     57 C          25.5496   21.5684   -1.6043 C.3     1  UNL1        0.1688
     58 C          26.0879   22.8231   -0.9830 C.ar    1  UNL1        0.0117
     59 C          26.9717   23.7355   -1.7807 C.ar    1  UNL1        0.0279
     60 C          27.5100   24.9903   -1.1594 C.ar    1  UNL1        0.1421
     61 F          28.3938   25.9027   -1.9571 F       1  UNL1       -0.2041
     62 C          27.1645   25.3325    0.2595 C.ar    1  UNL1        0.0592
     63 C          26.2806   24.4200    1.0572 C.ar    1  UNL1        0.1421
     64 F          25.9351   24.7622    2.4762 F       1  UNL1       -0.2041
     65 C          25.7424   23.1653    0.4359 C.ar    1  UNL1        0.0279
@<TRIPOS>BOND
     1    26    27    2
     2    26    28    2
     3    26    24    1
     4    24    25    1
     5    24     6    1
     6     6     7   ar
     7     7     8   ar
     8     8     9   ar
     9     9    10   ar
    10    10    11   ar
    11    10     2    1
    12     2     3    2
    13     2     4   am
    14     4     1    1
    15     1    30    1
    16    30    31    1
    17    30    33    1
    18    33    34    1
    19    34    36    1
    20    36    37    2
    21    36    38   am
    22    40    38    1
    23    40    52    1
    24    52    53    1
    25    52    54    1
    26    40    41    1
    27    41    42    2
    28    41    43   am
    29    43    45    1
    30    45    46    1
    31    46    47   ar
    32    47    48   ar
    33    48    49   ar
    34    49    50   ar
    35    50    51   ar
    36    34    35    1
    37     1    55    1
    38    55    56    1
    39    56    57    1
    40    57    58    1
    41    58    59   ar
    42    59    60   ar
    43    60    61    1
    44    60    62   ar
    45    62    63   ar
    46    63    64    1
    47    63    65   ar
    48     8    12    1
    49    12    13    2
    50    12    14   am
    51    14    16    1
    52    16    17    1
    53    16    18    1
    54    18    19   ar
    55    19    20   ar
    56    20    21   ar
    57    21    22   ar
    58    22    23   ar
    59    26    29    1
    60    11     6   ar
    61    51    46   ar
    62    65    58   ar
    63    23    18   ar
    64     4     5    1
    65    31    32    1
    66    38    39    1
    67    43    44    1
    68    14    15    1
@<TRIPOS>MOLECULE
*****
 65 68 0 0 0
SMALL
GASTEIGER

@<TRIPOS>ATOM
      1 C          21.2670   19.3759    1.1067 C.3     1  UNL1        0.1284
      2 C          19.7879   18.0914   -0.6000 C.2     1  UNL1        0.2460
      3 O          19.5975   19.3548   -1.3858 O.2     1  UNL1       -0.2701
      4 N          20.6227   18.1019    0.6462 N.am    1  UNL1       -0.2979
      5 H          20.7477   17.2727    1.1620 H       1  UNL1        0.1498
      6 C          17.5247   15.5655   -2.6609 C.ar    1  UNL1        0.0688
      7 C          17.8550   14.2697   -1.9814 C.ar    1  UNL1        0.0206
      8 C          18.8296   14.2478   -0.8413 C.ar    1  UNL1        0.0548
      9 C          19.4739   15.5217   -0.3809 C.ar    1  UNL1        0.0091
     10 C          19.1436   16.8174   -1.0604 C.ar    1  UNL1        0.0548
     11 C          18.1690   16.8393   -2.2005 C.ar    1  UNL1        0.0206
     12 C          19.1599   12.9520   -0.1618 C.2     1  UNL1        0.2461
     13 O          18.1671   12.3175    0.7665 O.2     1  UNL1       -0.2701
     14 N          20.4831   12.2906   -0.4106 N.am    1  UNL1       -0.2987
     15 H          21.1347   12.7070   -1.0199 H       1  UNL1        0.1500
     16 C          20.8134   10.9948    0.2689 C.3     1  UNL1        0.0944
     17 C          20.1716    9.7204   -0.1937 C.3     1  UNL1        0.0262
     18 C          21.7856   10.9734    1.4111 C.ar    1  UNL1       -0.0045
     19 C          21.6895    9.9033    2.4578 C.ar    1  UNL1       -0.0027
     20 C          22.6616    9.8819    3.5999 C.ar    1  UNL1       -0.0003
     21 C          23.7298   10.9305    3.6953 C.ar    1  UNL1       -0.0000
     22 C          23.8259   12.0006    2.6486 C.ar    1  UNL1       -0.0003
     23 C          22.8538   12.0220    1.5065 C.ar    1  UNL1       -0.0027
     24 N          16.5501   15.5874   -3.8010 N.pl3   1  UNL1       -0.1925
     25 C          15.1798   15.0025   -3.6275 C.3     1  UNL1        0.1388
     26 S          16.9458   16.1941   -5.1144 S.O2    1  UNL1        0.0588
     27 O          15.9873   17.3240   -4.8813 O.2     1  UNL1       -0.1542
     28 O          17.9044   15.0642   -5.3476 O.2     1  UNL1       -0.1542
     29 C          17.3415   16.8009   -6.4280 C.3     1  UNL1        0.1999
     30 C          22.6681   19.7035    0.6828 C.3     1  UNL1        0.1313
     31 O          23.8248   19.3251    1.5597 O.3     1  UNL1       -0.3827
     32 H          23.4949   18.8797    2.3558 H       1  UNL1        0.2104
     33 C          22.9124   20.4096   -0.6178 C.3     1  UNL1        0.0401
     34 C          24.2824   20.4033   -1.2288 C.3     1  UNL1        0.0790
     35 C          24.7051   19.2659   -2.1105 C.3     1  UNL1        0.0096
     36 C          25.2295   21.5345   -0.9581 C.2     1  UNL1        0.2224
     37 O          25.7114   21.7912    0.4391 O.2     1  UNL1       -0.2751
     38 N          25.6948   22.4090   -2.0844 N.am    1  UNL1       -0.2984
     39 H          25.3785   22.2405   -3.0014 H       1  UNL1        0.1498
     40 C          26.6420   23.5402   -1.8136 C.3     1  UNL1        0.1485
     41 C          26.2200   24.6766   -0.9302 C.2     1  UNL1        0.2406
     42 O          25.5465   25.8782   -1.5241 O.2     1  UNL1       -0.2733
     43 N          26.4715   24.6115    0.5472 N.am    1  UNL1       -0.2991
     44 H          26.9135   23.8229    0.9370 H       1  UNL1        0.1498
     45 C          26.0495   25.7479    1.4306 C.3     1  UNL1        0.1164
     46 C          24.5955   25.9685    1.7256 C.ar    1  UNL1       -0.0026
     47 C          23.6713   24.7949    1.8614 C.ar    1  UNL1       -0.0026
     48 C          22.2172   25.0155    2.1565 C.ar    1  UNL1       -0.0003
     49 C          21.6873   26.4098    2.3157 C.ar    1  UNL1       -0.0000
     50 C          22.6115   27.5834    2.1798 C.ar    1  UNL1       -0.0003
     51 C          24.0656   27.3628    1.8848 C.ar    1  UNL1       -0.0026
     52 C          28.0112   23.5349   -2.4263 C.3     1  UNL1        0.0269
     53 C          29.0901   24.4088   -1.8588 C.3     1  UNL1        0.0022
     54 C          28.3013   22.6557   -3.6065 C.3     1  UNL1        0.0022
     55 C          20.5103   20.3221    1.9909 C.3     1  UNL1        0.1645
     56 O          19.1048   20.0004    2.4046 O.3     1  UNL1       -0.3472
     57 C          18.0477   21.0637    2.3596 C.3     1  UNL1        0.1688
     58 C          18.2288   22.2646    1.4794 C.ar    1  UNL1        0.0117
     59 C          18.3074   22.0983   -0.0093 C.ar    1  UNL1        0.0279
     60 C          18.4886   23.2993   -0.8897 C.ar    1  UNL1        0.1421
     61 F          18.5671   23.1329   -2.3783 F       1  UNL1       -0.2041
     62 C          18.5912   24.6665   -0.2813 C.ar    1  UNL1        0.0592
     63 C          18.5126   24.8328    1.2075 C.ar    1  UNL1        0.1421
     64 F          18.6152   26.2000    1.8158 F       1  UNL1       -0.2041
     65 C          18.3314   23.6319    2.0877 C.ar    1  UNL1        0.0279
@<TRIPOS>BOND
     1    26    27    2
     2    26    28    2
     3    26    24    1
     4    24    25    1
     5    24     6    1
     6     6     7   ar
     7     7     8   ar
     8     8     9   ar
     9     9    10   ar
    10    10    11   ar
    11    10     2    1
    12     2     3    2
    13     2     4   am
    14     4     1    1
    15     1    30    1
    16    30    31    1
    17    30    33    1
    18    33    34    1
    19    34    36    1
    20    36    37    2
    21    36    38   am
    22    40    38    1
    23    40    52    1
    24    52    53    1
    25    52    54    1
    26    40    41    1
    27    41    42    2
    28    41    43   am
    29    43    45    1
    30    45    46    1
    31    46    47   ar
    32    47    48   ar
    33    48    49   ar
    34    49    50   ar
    35    50    51   ar
    36    34    35    1
    37     1    55    1
    38    55    56    1
    39    56    57    1
    40    57    58    1
    41    58    59   ar
    42    59    60   ar
    43    60    61    1
    44    60    62   ar
    45    62    63   ar
    46    63    64    1
    47    63    65   ar
    48     8    12    1
    49    12    13    2
    50    12    14   am
    51    14    16    1
    52    16    17    1
    53    16    18    1
    54    18    19   ar
    55    19    20   ar
    56    20    21   ar
    57    21    22   ar
    58    22    23   ar
    59    26    29    1
    60    11     6   ar
    61    51    46   ar
    62    65    58   ar
    63    23    18   ar
    64     4     5    1
    65    31    32    1
    66    38    39    1
    67    43    44    1
    68    14    15    1
@<TRIPOS>MOLECULE
*****
 65 68 0 0 0
SMALL
GASTEIGER

@<TRIPOS>ATOM
      1 C          21.9268   18.9149    1.4412 C.3     1  UNL1        0.1284
      2 C          22.1536   16.3278    1.3640 C.2     1  UNL1        0.2460
      3 O          23.4528   16.4195    2.1081 O.2     1  UNL1       -0.2701
      4 N          21.3906   17.5755    1.0305 N.am    1  UNL1       -0.2979
      5 H          20.5379   17.5153    0.5422 H       1  UNL1        0.1498
      6 C          21.6128   12.4004    1.1818 C.ar    1  UNL1        0.0688
      7 C          20.5450   12.3097    0.1323 C.ar    1  UNL1        0.0206
      8 C          20.0134   13.5584   -0.5067 C.ar    1  UNL1        0.0548
      9 C          20.5495   14.8977   -0.0961 C.ar    1  UNL1        0.0091
     10 C          21.6174   14.9884    0.9534 C.ar    1  UNL1        0.0548
     11 C          22.1490   13.7398    1.5923 C.ar    1  UNL1        0.0206
     12 C          18.9455   13.4676   -1.5562 C.2     1  UNL1        0.2461
     13 O          19.1656   12.6280   -2.7795 O.2     1  UNL1       -0.2701
     14 N          17.6575   14.2165   -1.3824 N.am    1  UNL1       -0.2987
     15 H          17.5130   14.7675   -0.5794 H       1  UNL1        0.1500
     16 C          16.5896   14.1257   -2.4318 C.3     1  UNL1        0.0944
     17 C          15.7307   12.8995   -2.5238 C.3     1  UNL1        0.0262
     18 C          16.3806   15.2613   -3.3894 C.ar    1  UNL1       -0.0045
     19 C          15.4426   15.1017   -4.5489 C.ar    1  UNL1       -0.0027
     20 C          15.2337   16.2373   -5.5064 C.ar    1  UNL1       -0.0003
     21 C          15.9628   17.5325   -5.3043 C.ar    1  UNL1       -0.0000
     22 C          16.9008   17.6921   -4.1447 C.ar    1  UNL1       -0.0003
     23 C          17.1097   16.5566   -3.1873 C.ar    1  UNL1       -0.0027
     24 N          22.1445   11.1518    1.8207 N.pl3   1  UNL1       -0.1925
     25 C          22.6034   10.0084    0.9651 C.3     1  UNL1        0.1388
     26 S          22.2172   11.0465    3.3152 S.O2    1  UNL1        0.0588
     27 O          23.7148   11.0075    3.2396 O.2     1  UNL1       -0.1542
     28 O          20.7196   11.0855    3.3908 O.2     1  UNL1       -0.1542
     29 C          22.2900   10.9412    4.8098 C.3     1  UNL1        0.1999
     30 C          23.1986   19.4312    0.8361 C.3     1  UNL1        0.1313
     31 O          24.5168   19.1170    1.4793 O.3     1  UNL1       -0.3827
     32 H          24.3696   18.5752    2.2703 H       1  UNL1        0.2104
     33 C          23.1521   20.2616   -0.4122 C.3     1  UNL1        0.0401
     34 C          24.4143   20.5460   -1.1712 C.3     1  UNL1        0.0790
     35 C          24.8384   19.6390   -2.2880 C.3     1  UNL1        0.0096
     36 C          25.2523   21.7375   -0.8133 C.2     1  UNL1        0.2224
     37 O          25.7085   21.9359    0.6019 O.2     1  UNL1       -0.2751
     38 N          25.6343   22.7306   -1.8706 N.am    1  UNL1       -0.2984
     39 H          25.3349   22.6004   -2.7994 H       1  UNL1        0.1498
     40 C          26.4723   23.9221   -1.5127 C.3     1  UNL1        0.1485
     41 C          25.8655   25.0655   -0.7549 C.2     1  UNL1        0.2406
     42 O          25.3713   26.2753   -1.4913 O.2     1  UNL1       -0.2733
     43 N          25.7527   24.9992    0.7395 N.am    1  UNL1       -0.2991
     44 H          26.0771   24.2052    1.2228 H       1  UNL1        0.1498
     45 C          25.1459   26.1426    1.4973 C.3     1  UNL1        0.1164
     46 C          23.6717   26.1610    1.7735 C.ar    1  UNL1       -0.0026
     47 C          22.9147   24.8714    1.8918 C.ar    1  UNL1       -0.0026
     48 C          21.4404   24.8898    2.1681 C.ar    1  UNL1       -0.0003
     49 C          20.7232   26.1977    2.3259 C.ar    1  UNL1       -0.0000
     50 C          21.4802   27.4873    2.2075 C.ar    1  UNL1       -0.0003
     51 C          22.9544   27.4689    1.9313 C.ar    1  UNL1       -0.0026
     52 C          27.9172   23.9701   -1.9126 C.3     1  UNL1        0.0269
     53 C          28.9062   24.7122   -1.0634 C.3     1  UNL1        0.0022
     54 C          28.3731   23.2761   -3.1618 C.3     1  UNL1        0.0022
     55 C          21.1913   19.7379    2.4568 C.3     1  UNL1        0.1645
     56 O          19.7246   19.5177    2.6807 O.3     1  UNL1       -0.3472
     57 C          18.7627   20.6582    2.5258 C.3     1  UNL1        0.1688
     58 C          18.7069   21.4225    1.2364 C.ar    1  UNL1        0.0117
     59 C          18.5889   22.9177    1.2553 C.ar    1  UNL1        0.0279
     60 C          18.5332   23.6820   -0.0342 C.ar    1  UNL1        0.1421
     61 F          18.4152   25.1772   -0.0152 F       1  UNL1       -0.2041
     62 C          18.5955   22.9511   -1.3426 C.ar    1  UNL1        0.0592
     63 C          18.7135   21.4559   -1.3615 C.ar    1  UNL1        0.1421
     64 F          18.7758   20.7249   -2.6699 F       1  UNL1       -0.2041
     65 C          18.7693   20.6916   -0.0720 C.ar    1  UNL1        0.0279
@<TRIPOS>BOND
     1    26    27    2
     2    26    28    2
     3    26    24    1
     4    24    25    1
     5    24     6    1
     6     6     7   ar
     7     7     8   ar
     8     8     9   ar
     9     9    10   ar
    10    10    11   ar
    11    10     2    1
    12     2     3    2
    13     2     4   am
    14     4     1    1
    15     1    30    1
    16    30    31    1
    17    30    33    1
    18    33    34    1
    19    34    36    1
    20    36    37    2
    21    36    38   am
    22    40    38    1
    23    40    52    1
    24    52    53    1
    25    52    54    1
    26    40    41    1
    27    41    42    2
    28    41    43   am
    29    43    45    1
    30    45    46    1
    31    46    47   ar
    32    47    48   ar
    33    48    49   ar
    34    49    50   ar
    35    50    51   ar
    36    34    35    1
    37     1    55    1
    38    55    56    1
    39    56    57    1
    40    57    58    1
    41    58    59   ar
    42    59    60   ar
    43    60    61    1
    44    60    62   ar
    45    62    63   ar
    46    63    64    1
    47    63    65   ar
    48     8    12    1
    49    12    13    2
    50    12    14   am
    51    14    16    1
    52    16    17    1
    53    16    18    1
    54    18    19   ar
    55    19    20   ar
    56    20    21   ar
    57    21    22   ar
    58    22    23   ar
    59    26    29    1
    60    11     6   ar
    61    51    46   ar
    62    65    58   ar
    63    23    18   ar
    64     4     5    1
    65    31    32    1
    66    38    39    1
    67    43    44    1
    68    14    15    1
@<TRIPOS>MOLECULE
*****
 65 68 0 0 0
SMALL
GASTEIGER

@<TRIPOS>ATOM
      1 C          25.2012   24.5598    1.2608 C.3     1  UNL1        0.1284
      2 C          25.9806   23.8032   -1.0993 C.2     1  UNL1        0.2460
      3 O          26.0722   25.2374   -1.5289 O.2     1  UNL1       -0.2701
      4 N          25.5452   23.4643    0.2955 N.am    1  UNL1       -0.2979
      5 H          25.4851   22.5230    0.5774 H       1  UNL1        0.1498
      6 C          27.8127   21.7857   -3.9844 C.ar    1  UNL1        0.0688
      7 C          27.0125   20.5170   -3.9952 C.ar    1  UNL1        0.0206
      8 C          25.8684   20.3437   -3.0408 C.ar    1  UNL1        0.0548
      9 C          25.5244   21.4391   -2.0755 C.ar    1  UNL1        0.0091
     10 C          26.3246   22.7077   -2.0646 C.ar    1  UNL1        0.0548
     11 C          27.4687   22.8811   -3.0191 C.ar    1  UNL1        0.0206
     12 C          25.0682   19.0749   -3.0517 C.2     1  UNL1        0.2461
     13 O          25.5999   17.8589   -3.7507 O.2     1  UNL1       -0.2701
     14 N          23.7364   19.0223   -2.3636 N.am    1  UNL1       -0.2987
     15 H          23.3874   19.8204   -1.9049 H       1  UNL1        0.1500
     16 C          22.9362   17.7536   -2.3745 C.3     1  UNL1        0.0944
     17 C          23.1322   16.7340   -1.2920 C.3     1  UNL1        0.0262
     18 C          21.9400   17.5046   -3.4680 C.ar    1  UNL1       -0.0045
     19 C          21.4900   16.1056   -3.7682 C.ar    1  UNL1       -0.0027
     20 C          20.4938   15.8566   -4.8616 C.ar    1  UNL1       -0.0003
     21 C          19.9476   17.0066   -5.6548 C.ar    1  UNL1       -0.0000
     22 C          20.3976   18.4056   -5.3545 C.ar    1  UNL1       -0.0003
     23 C          21.3938   18.6546   -4.2611 C.ar    1  UNL1       -0.0027
     24 N          28.9568   21.9590   -4.9388 N.pl3   1  UNL1       -0.1925
     25 C          28.7962   21.5748   -6.3798 C.3     1  UNL1        0.1388
     26 S          30.2615   22.5166   -4.4522 S.O2    1  UNL1        0.0588
     27 O          29.9981   23.7882   -5.2030 O.2     1  UNL1       -0.1542
     28 O          30.5250   21.2450   -3.7015 O.2     1  UNL1       -0.1542
     29 C          31.5663   23.0742   -3.9656 C.3     1  UNL1        0.1999
     30 C          23.8478   25.2048    1.2121 C.3     1  UNL1        0.1313
     31 O          23.4656   26.0584    0.0393 O.3     1  UNL1       -0.3827
     32 H          24.2015   26.0888   -0.5920 H       1  UNL1        0.2104
     33 C          22.8767   24.9962    2.3360 C.3     1  UNL1        0.0401
     34 C          21.4288   24.7410    2.0386 C.3     1  UNL1        0.0790
     35 C          20.4470   25.8747    2.0629 C.3     1  UNL1        0.0096
     36 C          20.9627   23.3520    1.7168 C.2     1  UNL1        0.2224
     37 O          21.9576   22.2972    1.3324 O.2     1  UNL1       -0.2751
     38 N          19.5018   23.0178    1.7794 N.am    1  UNL1       -0.2984
     39 H          18.8488   23.7101    2.0317 H       1  UNL1        0.1498
     40 C          19.0357   21.6288    1.4576 C.3     1  UNL1        0.1485
     41 C          18.6229   21.2816    0.0579 C.2     1  UNL1        0.2406
     42 O          17.6762   22.1745   -0.6881 O.2     1  UNL1       -0.2733
     43 N          19.1569   20.0416   -0.5958 N.am    1  UNL1       -0.2991
     44 H          19.7782   19.4556   -0.1062 H       1  UNL1        0.1498
     45 C          18.7440   19.6944   -1.9954 C.3     1  UNL1        0.1164
     46 C          18.2304   18.3200   -2.3067 C.ar    1  UNL1       -0.0026
     47 C          17.1731   18.1339   -3.3543 C.ar    1  UNL1       -0.0026
     48 C          16.6594   16.7593   -3.6656 C.ar    1  UNL1       -0.0003
     49 C          17.2030   15.5710   -2.9293 C.ar    1  UNL1       -0.0000
     50 C          18.2603   15.7571   -1.8817 C.ar    1  UNL1       -0.0003
     51 C          18.7740   17.1315   -1.5704 C.ar    1  UNL1       -0.0026
     52 C          18.9825   20.5870    2.5354 C.3     1  UNL1        0.0269
     53 C          20.1484   19.6675    2.7480 C.3     1  UNL1        0.0022
     54 C          17.7634   20.4647    3.4008 C.3     1  UNL1        0.0022
     55 C          26.2106   25.0102    2.2748 C.3     1  UNL1        0.1645
     56 O          26.9291   26.3138    2.0899 O.3     1  UNL1       -0.3472
     57 C          26.3956   27.5615    2.7294 C.3     1  UNL1        0.1688
     58 C          25.4900   28.4728    1.9553 C.ar    1  UNL1        0.0117
     59 C          24.0284   28.5358    2.2862 C.ar    1  UNL1        0.0279
     60 C          23.1227   29.4471    1.5121 C.ar    1  UNL1        0.1421
     61 F          21.6610   29.5101    1.8430 F       1  UNL1       -0.2041
     62 C          23.6787   30.2955    0.4071 C.ar    1  UNL1        0.0592
     63 C          25.1405   30.2325    0.0762 C.ar    1  UNL1        0.1421
     64 F          25.6966   31.0809   -1.0288 F       1  UNL1       -0.2041
     65 C          26.0461   29.3212    0.8503 C.ar    1  UNL1        0.0279
@<TRIPOS>BOND
     1    26    27    2
     2    26    28    2
     3    26    24    1
     4    24    25    1
     5    24     6    1
     6     6     7   ar
     7     7     8   ar
     8     8     9   ar
     9     9    10   ar
    10    10    11   ar
    11    10     2    1
    12     2     3    2
    13     2     4   am
    14     4     1    1
    15     1    30    1
    16    30    31    1
    17    30    33    1
    18    33    34    1
    19    34    36    1
    20    36    37    2
    21    36    38   am
    22    40    38    1
    23    40    52    1
    24    52    53    1
    25    52    54    1
    26    40    41    1
    27    41    42    2
    28    41    43   am
    29    43    45    1
    30    45    46    1
    31    46    47   ar
    32    47    48   ar
    33    48    49   ar
    34    49    50   ar
    35    50    51   ar
    36    34    35    1
    37     1    55    1
    38    55    56    1
    39    56    57    1
    40    57    58    1
    41    58    59   ar
    42    59    60   ar
    43    60    61    1
    44    60    62   ar
    45    62    63   ar
    46    63    64    1
    47    63    65   ar
    48     8    12    1
    49    12    13    2
    50    12    14   am
    51    14    16    1
    52    16    17    1
    53    16    18    1
    54    18    19   ar
    55    19    20   ar
    56    20    21   ar
    57    21    22   ar
    58    22    23   ar
    59    26    29    1
    60    11     6   ar
    61    51    46   ar
    62    65    58   ar
    63    23    18   ar
    64     4     5    1
    65    31    32    1
    66    38    39    1
    67    43    44    1
    68    14    15    1
