@<TRIPOS>MOLECULE
*****
 60 63 0 0 0
SMALL
GASTEIGER

@<TRIPOS>ATOM
      1 S           3.7500    1.2990    0.0000 S.O2    1  UNL1        0.0588
      2 O           2.4510    2.0490    0.0000 O.2     1  UNL1       -0.1542
      3 O           5.0490    0.5490    0.0000 O.2     1  UNL1       -0.1542
      4 N           3.0000    0.0000    0.0000 N.pl3   1  UNL1       -0.1925
      5 C           3.7500   -1.2990    0.0000 C.3     1  UNL1        0.1388
      6 C           1.5000    0.0000    0.0000 C.ar    1  UNL1        0.0688
      7 C           0.7500   -1.2990    0.0000 C.ar    1  UNL1        0.0207
      8 C          -0.7500   -1.2990    0.0000 C.ar    1  UNL1        0.0565
      9 C          -1.5000    0.0000    0.0000 C.ar    1  UNL1        0.0092
     10 C          -0.7500    1.2990    0.0000 C.ar    1  UNL1        0.0565
     11 C           0.7500    1.2990    0.0000 C.ar    1  UNL1        0.0207
     12 C          -1.5000    2.5981    0.0000 C.2     1  UNL1        0.2649
     13 O          -3.0000    2.5981    0.0000 O.2     1  UNL1       -0.2684
     14 N          -0.7500    3.8971    0.0000 N.am    1  UNL1       -0.1982
     15 C          -1.5000    5.1962    0.0000 C.3     1  UNL1        0.1553
     16 C          -3.0000    5.1962    0.0000 C.3     1  UNL1        0.1748
     17 O          -3.7500    3.8971    0.0000 O.3     1  UNL1       -0.2212
     18 C          -3.7500    6.4952    0.0000 C.3     1  UNL1        0.0439
     19 C          -5.2500    6.4952    0.0000 C.3     1  UNL1        0.0808
     20 C          -6.0000    5.1962    0.0000 C.2     1  UNL1        0.2414
     21 O          -5.2500    3.8971    0.0000 O.2     1  UNL1       -0.2733
     22 N          -7.5000    5.1962    0.0000 N.am    1  UNL1       -0.1978
     23 C          -8.2500    3.8971    0.0000 C.3     1  UNL1        0.1726
     24 C          -9.7500    3.8971    0.0000 C.3     1  UNL1        0.0290
     25 C         -10.5000    2.5981    0.0000 C.3     1  UNL1        0.0023
     26 C         -10.5000    5.1962    0.0000 C.3     1  UNL1        0.0023
     27 C          -7.5000    2.5981    0.0000 C.2     1  UNL1        0.2615
     28 O          -6.0000    2.5981    0.0000 O.2     1  UNL1       -0.2715
     29 N          -8.2500    1.2990    0.0000 N.am    1  UNL1       -0.1991
     30 C          -7.5000    0.0000    0.0000 C.3     1  UNL1        0.1415
     31 C          -8.2500   -1.2990    0.0000 C.ar    1  UNL1       -0.0006
     32 C          -9.7500   -1.2990    0.0000 C.ar    1  UNL1       -0.0026
     33 C         -10.5000   -2.5981    0.0000 C.ar    1  UNL1       -0.0003
     34 C          -9.7500   -3.8971    0.0000 C.ar    1  UNL1       -0.0000
     35 C          -8.2500   -3.8971    0.0000 C.ar    1  UNL1       -0.0003
     36 C          -7.5000   -2.5981    0.0000 C.ar    1  UNL1       -0.0026
     37 C          -6.0000    7.7942    0.0000 C.3     1  UNL1        0.0097
     38 C          -0.7500    6.4952    0.0000 C.3     1  UNL1        0.1667
     39 O          -1.5000    7.7942    0.0000 O.3     1  UNL1       -0.3471
     40 C          -0.7500    9.0933    0.0000 C.3     1  UNL1        0.1688
     41 C          -1.5000   10.3923    0.0000 C.ar    1  UNL1        0.0117
     42 C          -0.7500   11.6913    0.0000 C.ar    1  UNL1        0.0279
     43 C          -1.5000   12.9904    0.0000 C.ar    1  UNL1        0.1421
     44 F          -0.7500   14.2894    0.0000 F       1  UNL1       -0.2041
     45 C          -3.0000   12.9904    0.0000 C.ar    1  UNL1        0.0592
     46 C          -3.7500   11.6913    0.0000 C.ar    1  UNL1        0.1421
     47 F          -5.2500   11.6913    0.0000 F       1  UNL1       -0.2041
     48 C          -3.0000   10.3923    0.0000 C.ar    1  UNL1        0.0279
     49 C          -1.5000   -2.5981    0.0000 C.2     1  UNL1        0.2651
     50 O          -0.7500   -3.8971    0.0000 O.2     1  UNL1       -0.2684
     51 N          -3.0000   -2.5981    0.0000 N.am    1  UNL1       -0.1989
     52 C          -3.7500   -3.8971    0.0000 C.3     1  UNL1        0.1178
     53 C          -5.2500   -3.8971    0.0000 C.3     1  UNL1        0.0283
     54 C          -3.0000   -5.1962    0.0000 C.ar    1  UNL1       -0.0026
     55 C          -3.7500   -6.4952    0.0000 C.ar    1  UNL1       -0.0026
     56 C          -3.0000   -7.7942    0.0000 C.ar    1  UNL1       -0.0003
     57 C          -1.5000   -7.7942    0.0000 C.ar    1  UNL1       -0.0000
     58 C          -0.7500   -6.4952    0.0000 C.ar    1  UNL1       -0.0003
     59 C          -1.5000   -5.1962    0.0000 C.ar    1  UNL1       -0.0026
     60 C           4.5000    2.5981    0.0000 C.3     1  UNL1        0.1999
@<TRIPOS>BOND
     1     1     2    2
     2     1     3    2
     3     1     4    1
     4     4     5    1
     5     4     6    1
     6     6     7   ar
     7     7     8   ar
     8     8     9   ar
     9     9    10   ar
    10    10    11   ar
    11    10    12    1
    12    12    13    2
    13    12    14   am
    14    14    15    1
    15    15    16    1
    16    16    17    1
    17    16    18    1
    18    18    19    1
    19    19    20    1
    20    20    21    2
    21    20    22   am
    22    23    22    1
    23    23    24    1
    24    24    25    1
    25    24    26    1
    26    23    27    1
    27    27    28    2
    28    27    29   am
    29    29    30    1
    30    30    31    1
    31    31    32   ar
    32    32    33   ar
    33    33    34   ar
    34    34    35   ar
    35    35    36   ar
    36    19    37    1
    37    15    38    1
    38    38    39    1
    39    39    40    1
    40    40    41    1
    41    41    42   ar
    42    42    43   ar
    43    43    44    1
    44    43    45   ar
    45    45    46   ar
    46    46    47    1
    47    46    48   ar
    48     8    49    1
    49    49    50    2
    50    49    51   am
    51    51    52    1
    52    52    53    1
    53    52    54    1
    54    54    55   ar
    55    55    56   ar
    56    56    57   ar
    57    57    58   ar
    58    58    59   ar
    59     1    60    1
    60    11     6   ar
    61    36    31   ar
    62    48    41   ar
    63    59    54   ar
